tests/data/angle_bounds_clamp.m
function mpc = angle_bounds_clamp
mpc.version = '2';
mpc.baseMVA = 100;
mpc.bus = [
	1	3	0	0	0	0	1	1	0	230	1	1.1	0.9;
	2	1	0	0	0	0	1	1	0	230	1	1.1	0.9;
	3	1	0	0	0	0	1	1	0	230	1	1.1	0.9;
	4	1	0	0	0	0	1	1	0	230	1	1.1	0.9;
	5	1	0	0	0	0	1	1	0	230	1	1.1	0.9;
	6	1	0	0	0	0	1	1	0	230	1	1.1	0.9;
];
mpc.gen = [
	1	0	0	100	-100	1	100	1	200	0	0	0	0	0	0	0	0	0	0	0	0;
];
mpc.branch = [
	1	2	0.01	0.1	0	100	100	100	0	0	1	-360	360;
	2	3	0.01	0.1	0	100	100	100	0	0	1	0	0;
	3	4	0.01	0.1	0	100	100	100	0	0	1	-30	30;
	4	5	0.01	0.1	0	100	100	100	0	0	1	-120	-100;
	5	6	0.01	0.1	0	100	100	100	0	0	1	100	120;
];
